@<TRIPOS>MOLECULE
CUC
   27    29     1     0     0
SMALL
bcc


@<TRIPOS>ATOM
      1 C1           1.3690     0.0120    -0.0890 c3         1 CUC      -0.060033
      2 C2           1.7270     1.4730    -0.4120 c3         1 CUC      -0.071733
      3 C3           0.8340     2.4130     0.4170 c3         1 CUC      -0.060033
      4 C4          -0.6420     2.1590     0.0680 c3         1 CUC      -0.071733
      5 C5          -0.1070    -0.2440    -0.4380 c3         1 CUC      -0.071733
      6 C6          -0.9940     0.6980     0.3940 c3         1 CUC      -0.060033
      7 C7           1.6010    -0.2580     1.4080 c3         1 CUC      -0.086067
      8 C8           1.0640     2.1550     1.9170 c3         1 CUC      -0.086067
      9 C9          -0.7600     0.4340     1.8910 c3         1 CUC      -0.086067
     10 C10          0.7150     0.6880     2.2450 c3         1 CUC       0.150800
     11 O11          0.8430     0.4260     3.6250 oh         1 CUC      -0.593800
     12 H12          2.0010    -0.6550    -0.6780 hc         1 CUC       0.050367
     13 H13          2.7800     1.6620    -0.1960 hc         1 CUC       0.041867
     14 H14          1.5960     1.6690    -1.4770 hc         1 CUC       0.041867
     15 H15          1.0870     3.4500     0.1870 hc         1 CUC       0.050367
     16 H16         -1.2870     2.8380     0.6280 hc         1 CUC       0.041867
     17 H17         -0.8230     2.3660    -0.9880 hc         1 CUC       0.041867
     18 H18         -0.2780    -0.0830    -1.5040 hc         1 CUC       0.041867
     19 H19         -0.3690    -1.2850    -0.2410 hc         1 CUC       0.041867
     20 H20         -2.0430     0.5150     0.1530 hc         1 CUC       0.050367
     21 H21          1.3700    -1.2980     1.6420 hc         1 CUC       0.049367
     22 H22          2.6580    -0.1180     1.6390 hc         1 CUC       0.049367
     23 H23          2.1020     2.3800     2.1650 hc         1 CUC       0.049367
     24 H24          0.4500     2.8330     2.5120 hc         1 CUC       0.049367
     25 H25         -1.4070     1.0770     2.4890 hc         1 CUC       0.049367
     26 H26         -1.0360    -0.5920     2.1380 hc         1 CUC       0.049367
     27 H27          1.7490     0.5710     3.8920 ho         1 CUC       0.397000
@<TRIPOS>BOND
     1     1     2 1   
     2     1     5 1   
     3     1    12 1   
     4     1     7 1   
     5     2    14 1   
     6     2    13 1   
     7     2     3 1   
     8     3    15 1   
     9     3     4 1   
    10     3     8 1   
    11     4    16 1   
    12     4     6 1   
    13     4    17 1   
    14     5    18 1   
    15     5    19 1   
    16     5     6 1   
    17     6    20 1   
    18     6     9 1   
    19     7    21 1   
    20     7    22 1   
    21     7    10 1   
    22     8    24 1   
    23     8    23 1   
    24     8    10 1   
    25     9    25 1   
    26     9    10 1   
    27     9    26 1   
    28    10    11 1   
    29    11    27 1   
@<TRIPOS>SUBSTRUCTURE
     1 CUC         1 TEMP              0 ****  ****    0 ROOT
